Version 4.1
SHEET 1 880 680
WIRE 224 -496 -160 -496
WIRE 224 -464 224 -496
WIRE 192 -448 48 -448
WIRE 304 -432 256 -432
WIRE 352 -432 304 -432
WIRE 192 -416 160 -416
WIRE -160 -400 -160 -496
WIRE 48 -400 48 -448
WIRE 224 -368 224 -400
WIRE 160 -272 160 -416
WIRE 192 -272 160 -272
WIRE 304 -272 304 -432
WIRE 304 -272 272 -272
WIRE -160 -240 -160 -320
WIRE 160 -240 160 -272
WIRE 48 -192 48 -320
WIRE 160 -128 160 -160
FLAG 160 -128 0
FLAG 48 -192 0
FLAG 224 -368 0
FLAG -160 -240 0
SYMBOL OpAmps\\UniversalOpAmp 224 -432 M180
SYMATTR InstName U1
SYMBOL res 288 -288 R90
WINDOW 0 0 56 VBottom 2
WINDOW 3 32 56 VTop 2
SYMATTR InstName R1
SYMATTR Value 390
SYMATTR SpiceLine tol=10 pwr=250m
SYMBOL res 144 -256 R0
SYMATTR InstName R2
SYMATTR Value 82
SYMATTR SpiceLine tol=10 pwr=250m
SYMBOL voltage 48 -416 R0
WINDOW 3 -135 102 Left 2
WINDOW 123 0 0 Left 0
WINDOW 39 0 0 Left 0
SYMATTR Value SINE(0.75 0.75 1)
SYMATTR InstName V1
SYMBOL voltage -160 -416 R0
WINDOW 123 0 0 Left 0
WINDOW 39 0 0 Left 0
SYMATTR InstName V2
SYMATTR Value 9
TEXT -192 -96 Left 2 !.tran 0 5 0 5m
